CM Initial dimensions by Martin Steyer, DK7ZB
CM http://www.qsl.net/dk7zb/PVC-Yagis/5-Ele-2m.htm
CE 
GW 1	11	0.519	0	0	-0.519	0	0	0.002
GW 2	11	0.4975	0	0.28	-0.4975	0	0.28	0.002
GW 3	11	0.4795	0	0.43	-0.4795	0	0.43	0.002
GW 4	11	0.4745	0	0.95	-0.4745	0	0.95	0.002
GW 5	11	0.4675	0	1.48	-0.4675	0	1.48	0.002
GE 0	0	0	0	0	0	0	0	0
EX 0	2	6	0	1	0	0	0	0	0
RP 0	19	37	1000	0	0	10	10	0	0
NH 0	0	0	0	0	0	0	0	0	0
NE 0	0	0	0	0	0	0	0	0	0
ZO 50	0	0	0	0	0	0	0	0	0
FR 0	100	0	0	144	0.0404040404040404	0	0	0	0
EN 0	0	0	0	0	0	0	0	0	0
